54
TARGET_V
C     -0.8087900000   -0.9326480000   -0.0239650000
C      0.5346620000   -0.4294450000    0.0140530000
C     -1.2411690000   -2.2187760000   -0.2698110000
C     -2.6349210000   -2.3532820000   -0.2302580000
C     -3.2891080000   -1.1702790000    0.0468490000
S     -2.1479620000    0.1065580000    0.2726310000
C     -4.6976880000   -0.9046910000    0.1401650000
S     -5.2664180000    0.6900110000   -0.1630470000
C     -5.7350020000   -1.7733650000    0.4790670000
C     -6.9633210000   -1.1090720000    0.4931900000
C     -6.8988490000    0.2405880000    0.1774780000
S      1.8783760000   -1.4946250000   -0.0919080000
C      3.0168780000   -0.1972040000    0.0114420000
C      2.3473060000    1.0082150000    0.1302470000
C      0.9577120000    0.8795140000    0.1315560000
C      4.4369210000   -0.3856430000   -0.0269960000
C      5.1881540000   -1.5611350000   -0.1376300000
C      6.5556450000   -1.2872940000   -0.1367290000
C      6.8791380000    0.0586730000   -0.0296390000
S      5.4420600000    1.0084170000    0.0724340000
C      4.6067810000   -2.9371340000   -0.2439220000
C      5.6331460000   -4.0507330000   -0.3494890000
H      6.2618000000   -3.9328880000   -1.2349110000
H      6.2826490000   -4.0811460000    0.5282250000
H      5.1288380000   -5.0149570000   -0.4245710000
H      3.9652940000   -3.1195940000    0.6256200000
H      3.9431820000   -2.9749610000   -1.1152150000
C     -5.5926470000   -3.2256260000    0.8048380000
C     -5.8283380000   -4.1262400000   -0.4046890000
H     -5.6974270000   -5.1755390000   -0.1334720000
H     -6.8423350000   -3.9976140000   -0.7891000000
H     -5.1380830000   -3.8955350000   -1.2193210000
H     -4.6044100000   -3.4128500000    1.2303960000
H     -6.3183510000   -3.4753990000    1.5830320000
C      8.2014360000    0.5367580000   -0.0128410000
C     -8.0244020000    1.0861760000    0.1485760000
C     -8.1108930000    2.4237100000   -0.1283680000
C     -6.9959480000    3.2353930000   -0.4554670000
C     -9.3716470000    3.0743240000   -0.0968100000
N    -10.3945500000    3.6068400000   -0.0724690000
N     -6.0942840000    3.9033760000   -0.7232760000
C      8.6725360000    1.8197810000    0.0835940000
C     10.0700680000    2.0631260000    0.0780110000
C      7.8393250000    2.9606650000    0.1907600000
N      7.1686490000    3.8955350000    0.2781190000
N     11.2059720000    2.2648630000    0.0737150000
H      8.9576840000   -0.2383640000   -0.0896690000
H      7.3233150000   -2.0457800000   -0.2127820000
H      2.8559530000    1.9602680000    0.2100450000
H      0.2775050000    1.7178640000    0.2068370000
H     -0.5680400000   -3.0377250000   -0.4880850000
H     -3.1456580000   -3.2809170000   -0.4402210000
H     -7.8993750000   -1.5924730000    0.7463930000
H     -8.9618500000    0.5914130000    0.3831480000




